LTspice 24.1.8 for Windows
Circuit: R:\no gay porn here\screxample.net
Start Time: Mon Jun 23 13:58:48 2025
solver = Normal
Maximum thread count: 16
tnom = 27
temp = 27
method = trap
R:\no gay porn here\thyristr.lib(72): Missing value, assuming 0V @ DC.

VIak     anode2  cathode                         ; current sensor
^^^^^^^^^^^^^^^^^^^^^^^^^^^^^^^^^^^^^^^^^^^^^^^^^^^^^^^^^^^^^^^^^
R:\no gay porn here\thyristr.lib(86): Missing value, assuming 0V @ DC.

VIgf     gate2   cathode                         ; current sensor
^^^^^^^^^^^^^^^^^^^^^^^^^^^^^^^^^^^^^^^^^^^^^^^^^^^^^^^^^^^^^^^^^
.OP point found by inspection.
Total elapsed time: 0.183 seconds.

Files loaded:
R:\no gay porn here\screxample.net
R:\no gay porn here\thyristr.lib

