LTspice 24.1.8 for Windows
Circuit: R:\no gay porn here\vertical multivib.net
Start Time: Sat Jun 28 13:15:41 2025
solver = Normal
Maximum thread count: 16
tnom = 27
temp = 27
method = trap
WARNING: Node n139 is floating.
WARNING: Node n028 is floating.
WARNING: Node n024 is floating.

R:\no gay porn here\thyristr.lib(72): Missing value, assuming 0V @ DC.

VIak     anode2  cathode                         ; current sensor
^^^^^^^^^^^^^^^^^^^^^^^^^^^^^^^^^^^^^^^^^^^^^^^^^^^^^^^^^^^^^^^^^
R:\no gay porn here\thyristr.lib(86): Missing value, assuming 0V @ DC.

VIgf     gate2   cathode                         ; current sensor
^^^^^^^^^^^^^^^^^^^^^^^^^^^^^^^^^^^^^^^^^^^^^^^^^^^^^^^^^^^^^^^^^
Direct Newton iteration failed to find .op point.  (Use ".option noopiter" to skip.)
Starting Gmin stepping
Gmin = 10
Gmin = 1.07374
Gmin = 0.115292
Gmin = 0.0123794
Gmin = 0.00132923
Gmin = 0.000142725
Gmin = 1.5325e-05
Gmin = 1.6455e-06
Gmin = 1.76685e-07
Gmin = 1.89714e-08
Gmin = 2.03704e-09
Gmin = 2.18725e-10
Gmin = 2.34854e-11
Gmin = 2.52173e-12
Gmin = 2.70769e-13
Gmin = 0
Gmin stepping succeeded in finding the operating point.

Total elapsed time: 0.000 seconds.
Trouble writing 4 more bytes to the disk...
   Full?  Permission problem?